<routes>
   <flow id="carflow01" begin="0" end="100000" probability="0.10" from="-gneE0" to="gneE1" departLane="1" />
   <flow id="carflow02" begin="0" end="100000" probability="0.06" from="-gneE0" to="gneE2" departLane="0" />
   <flow id="carflow03" begin="0" end="100000" probability="0.06" from="-gneE0" to="gneE3" departLane="0" />

   <flow id="carflow10" begin="0" end="100000" probability="0.06" from="-gneE1" to="gneE0" departLane="0"/>
   <flow id="carflow12" begin="0" end="100000" probability="0.10" from="-gneE1" to="gneE2" departLane="1"/>
   <flow id="carflow13" begin="0" end="100000" probability="0.06" from="-gneE1" to="gneE3" departLane="0"/>

   <flow id="carflow21" begin="0" end="100000" probability="0.06" from="-gneE2" to="gneE1" departLane="0"/>
   <flow id="carflow20" begin="0" end="100000" probability="0.06" from="-gneE2" to="gneE0" departLane="0"/>
   <flow id="carflow23" begin="0" end="100000" probability="0.10" from="-gneE2" to="gneE3" departLane="1"/>

   <flow id="carflow31" begin="0" end="100000" probability="0.06" from="-gneE3" to="gneE1" departLane="0"/>
   <flow id="carflow32" begin="0" end="100000" probability="0.06" from="-gneE3" to="gneE2" departLane="0"/>
   <flow id="carflow30" begin="0" end="100000" probability="0.10" from="-gneE3" to="gneE0" departLane="1"/>
</routes>
